

! ------------------------------------------------------------------
! : prototype_OfficeSmall_template.tmpl,v 1.2 2011/02/19 17:47:05 d3l143 Exp  : prototype_OfficeSmall_template.tmpl,v  Revision 1.2  2011/02/19 17:47:05  d3l143
! changepath for gtp, opaque and window libraries.
!
! Revision 1.1  2011/02/16 17:41:59  d3l143
! Initial revision
! Sep 18-21, 2013: Adding back the comments from V6 templates to the automatic upgraded V8 templates.
!                  Moving the comments out of the objects.
!                  Commenting out [design_wetbulb] which was defined but not used in Midrise, 3 offices and Warehouse.
!
!
! ------------------------------------------------------------------
!
!
!-Generator IDFEditor 1.33c
!-Option SortedOrder
!-NOTE: All comments with '!-' are ignored by the IDFEditor and are generated automatically.
!-      Use '!' comments if they need to be retained when using the IDFEditor.
!-   ===========  ALL OBJECTS IN CLASS: VERSION ===========
! DOE Commercial Building Benchmark
! Small Office, new construction
! Benchmark V 1.0_3.0
! EnergyPlus V 3.0
! ASHRAE Standards 90.1-2004 and 62-1999
!
! Description:  Single story, five zone office building.
! Form:         Area = 511 m2 (5,500 ft2); Number of Stories = 1; Shape = rectangle, Aspect ratio = 1.5
! Envelope:     Envelope thermal properties vary with climate according to ASHRAE Standard 90.1-2004.
!               Opaque constructions: mass walls; attic roof; slab-on-grade floor
!               Windows: window-to-wall ratio = 19%, equal distribution of punched windows
!               Infiltration = 0.4 cfm/ft2 above grade wall area at 0.3 in wc (75 Pa) adjusted to 0.016 in wc (4 Pa).
!                              25% of full value when ventilation system on.
! HVAC:         PSZ-AC, gas furnace
!               No economizer
!
! Int. gains:   lights = 10.76 W/m2 (1.0 W/ft2);
!               elec. plug loads = 6.78 W/m2 (0.63 W/ft2)
!               gas plug load = 0 W/m2 (0 W/ft2)
!               people = 7.53/100 m2 (7.0/1000 ft2)
!
! Detached Shading:               None
! Daylight:                       None
! Natural Ventilation:            None
! Zonal Equipment:                None
! Air Primary Loops:              PSZ-AC:1
! Plant Loops:                    SWHSys1
! System Equipment Autosize:      No
! Purchased Cooling:              None
! Purchased Heating:              None
! Coils:                          COIL:DX:COOLINGBYPASSFACTOREMPIRICAL; COIL:GAS:HEATING
! Pumps:                          None
! Boilers:                        None
! Chillers:                       None
!
! Generated by EPXMLPreproc2 (Windows 32 Version 0.1.2.1)
! Created on 11/14/2008 02:59:55
!***** NOTICE *****
!***** The Benchmarks were prepared as an account of work sponsored by an *****
!***** agency of the United States government. Neither the United States *****
!***** government nor any agency thereof, nor any of their employees, makes *****
!***** any warranty, express or implied, or assumes any legal liability or *****
!***** responsibility for the accuracy, completeness, or usefulness of any *****
!***** information, apparatus, product, or process disclosed, or represents *****
!***** that its use would not infringe privately owned rights. Reference *****
!***** herein to any specific commercial product, process, or service by *****
!***** trade name, trademark, manufacturer, or otherwise does not necessarily *****
!***** constitute or imply its endorsement, recommendation, or favoring by *****
!***** the United States government or any agency thereof. The views and *****
!***** opinions of authors expressed herein do not necessarily state or *****
!***** reflect those of the United States government or any agency thereof. *****
!***** Access to and use of the Benchmarks imposes the following obligations *****
!***** on the user. The user agrees to credit DOE, NREL, PNNL, and LBNL in *****
!***** any publication(s) that that result from the use of Benchmarks. *****
!***** However, the names of DOE/NREL/PNNL/LBNL may not be used in any *****
!***** advertising or publicity that implies endorsement or promotion of any *****
!***** products, services or commercial entities. *****
! Reference citation for the Commercial Building Benchmarks:
! Deru, M.; Griffith, B.; Long, N.; Benne, K.; Torcellini, P; Halverson, M.;
! Winiarski,  D.; Liu, B.; Crawley, D. (2008). DOE Commercial Building Resarch
! Benchmarks for Commercial Buildings. Washington, DC: U.S. Department of Energy,
! Energy Efficiency and Renewable Energy, Office of Building Technologies.
! Start SimMetaData
!PNNL Update notes-----------------------------------------------------------------
!1. Replaced location object script
!2. Updated all envelope and fenestration construction names to use the PNNL libraries.
!3. Updated infiltration rate to be based on exterior wall surface area option and using PNNL methodology.
!4. Updated following schedules to be consistent with the AEDG-SO guides and imported from GARD's SO idf file
! lighting, occupancy, equipment(modified to match the scorecard), infiltration, swh,
! heating set point schedule, cooling set point schedule, fans
!5. Changed the occupancy density to 7 people per 1000 sf with 80% net usuable area.
!6. Changed the plug load density to 0.63 W/sf based on AEDG-SO TSD Table 7-1.
!7. Changed infiltration schedule to match the score card (INFIL_QUATER_ON when infiltration is 0.25 when FAN ON and 1.0 when when FAN OFF)
!8. Minimum and maximum supply air temperatures are set at 12.8 C (55F) and 40 C (104F) in sizing (system and zone) objects and set point manager
!9. Hot water supply set point changed from 140F to 120F.  Changed in water use object, plant sizing and plant loop objects.
!10.Added hourly variables for load profiles.
!11. add a variable "economizer"
!12. 05-21-2009 Modified Schedules based on 90.1 SWG comments.
!13. August 12, 2009:  checked the "view factor to ground" and "autocalculate" used for all.  No changes are made.
!14. August 21, 2009:  implement Addendum X
!                      change lighting density from 10.764 W/m2 --> 10.198 w/m2 with a 0.566 W/m2 reduction
!15. August 25, 2009: run PI after the implementation of addendum X.  Adding Oct09.PI cases in the PARM. Noticed that exterior lighting changed
!                     for 2004/2007 from 1543 --> 1634 W (-91)
!                     for the PIs   from  925 -->  937 W (-12)
!                                        (618)    (697) less ext lgt for PI.Oct09 than PI.Jun09 after the change
!16.September 15, 2009: revise the implementation of addendum X (5 zones are affected)
!                       change lighting density from 10.765 W/m2 --> 10.2257 w/m2 with a 0.5393 W/m2 reduction
!17. OCtober 9, 2009
!        - Change the system to air source heat pump with gas furnace for supplement heating
!        - Attic is not considered as part of floor area
!        - Corrected perimeter floor construction from ext_slab_8in to ext_slab_8in_with_carpet
!        - Corrected soffit floor boundary condition from ground to outdoors
!        - Attic infiltration takes the constant value from Benchmark model
!18. November 5, 2009: standardize the LPD by
!                     (a) specifyed 1 LPD parm variable [LPD_office] in the PARM excel file
!                     (b) replaced the hard coded Watts/Area in 5 zones (out of 6 zones) in this template with the PARM LPD variable LPD_office
!19. December 28, 2009: Addendum c and q - Vestibule requriement
!      (a) Door infiltration schduecle (INFIL_Door_Opening_SCH) has been added.
!      (b) Door infiltration (ZoneInfiltration) has been added to Perimeter_ZN_1.
!      (c) Door infiltration value (door_infil) and fraction for off-peak hour (frac_ofpk) are inputted in the parm file.
!20. January 06, 2010: SWHSys1 Supply Equipment Branch is changed from Active to Passive.
!
!21. February 4, 2010: Upgrade from 3.0 to 4.0
!22. February 24, 2010: added a parm variable "damper_sch" in the parm file and changed the "MinOA_Sched" in 5 objects under (ALL OBJECTS IN CLASS: CONTROLLER:OUTDOORAIR) into [MinOA_Sched]
!23. July 19, 2010: added a monthly indoor temp report.
!24. October 11, 2010: Change the path of slab gtp
!25. January 31,  2011: (1) (addendum BS_CS)
!                             used parm variable "BLDG_QUIP_SCH" which has two values "BLDG_EQUIP_SCH_BASE" & "BLDG_EQUIP_SCH_ADV".
!                             removed the standard related IF condition by re-define to "BLDG_EQUIP_SCH_BASE" & "BLDG_EQUIP_SCH_ADV".
!                             replaced 5 "BLDG_QUIP_SCH" with parm variables
!                        (2)  defined a parm "addendum_cd" ro replace those IF condition in exterior lights objects associated with standard.
!26 February 8, 2011: Commented out "Output:REeports"
!
!27 August 3, 2012: Heat pump resistance heat lock-out. from 70 deg. F. to 40, change defrost controls, crank case heater, etc. Also changed cooling setpoint schedule to match heating.
!                   Changes made in: (1) "CLGSETP_SCH", (2) five "Coil:Heating:DX:SingleSpeed" objects, (3) five "AirLoopHVAC:UnitaryHeatPump:AirToAir" objects.
!28. Friday, August 03, 2012: optimum start function for whole building is implemented as choices for IECC and 90.1 models through added schedules and HtgSetP_Sch ClgSetP_Sch variables.
!29. Monday, August 13, 2012: Added lighting schedule sets for all standards (LTG_SET_STD2004)
!30. more revision/verification on SWH Model Enhancement on August 15, 2012
!31. January 31, 2013: change the gtp path for state analysis
!32. March 8, 2013: Added lighting schedules for NC amendment
!33. April 25, 2013: add summary report variables for the 2 offices and hotel small for the state analysis per request from Brian on April 24, 2013.
!34. May 1, 2013: crrect addendum cd implenetation by changing the reduction from 0.3 to 0.7
!35. Sunday, June 09, 2013: Addendum CB (Optimum Start) and related baseline changes are implemented.
! IDF File:     ../../OfficeSmall/sim/input.nobackup/ASHRAE901_OfficeSmall_STD2004_Denver.dd.idf
! Run Case:     ASHRAE901_OfficeSmall_STD2004_Denver
! WeatherFile:  USA_CO_Denver-Aurora-Buckley.AFB.724695_TMY3.epw

! GPARM parameters as input:
!    Case = ASHRAE901_OfficeSmall_STD2004_Denver
!    SelectedCase = 
!    HvacCase = elec_ht
!    annual_run = yes
!    slab_gtp = National_OfficeSmall_ASHRAE901_STD2004_Zone5B_nonres_CO-Denver-CO.gtp
!    basement_tempt = dummy.idf
!    avg_oa_tempt_ip = 49.91
!    maxdiff_oa_tempt_ip = 42.66
!    ext_wall_type = WoodFramedWall
!    nonres_ext_wall_ufactor = 0.505365407
!    roof_type = WoodJoistAtticRoof
!    nonres_roof_ufactor = 0.193060942
!    roof_solar_absorp = 0.7
!    nonres_window = 
!    sidelighting_control = no
!    economizer = DifferentialDryBulb
!    skip_economizer_control = No
!    LPD_office = 10.76391042
!    exterior_lights_watts = 1582.575
!    exterior_lights_watts_a = 
!    exterior_lights_watts_b = 
!    avg_oa_tempt = 9.95
!    maxdiff_oa_tempt = 23.7
!    infil = 0.001024128
!    oa_flow_per_area = 0.000507968
!    door_infil = 0.129785425
!    frac_ofpk = 0.144
!    damper_sch = MinOA_Sched
!    economizer_lockout = LockoutWithCompressor
!    BLDG_EQUIP_SCH = BLDG_EQUIP_SCH_BASE
!    addendum_cd = no
!    pv_generator = no
!    pv_surface_area = 0
!    STD189_overhang = no
!    swh_et = 1
!    swh_ua = 1.870180469
!    ext_lgt_sch = Exterior_Lgt_ALWAYS_ON
!    LTG_SCH_SET = LTG_SET_STD2004
!    HtgSetP_Sch = HTGSETP_SCH_NO_OPTIMUM
!    CLGSETP_SCH = CLGSETP_SCH_NO_SETBACK
!    pipe_heat_loss = 572
!    skip_EMSprogram = yes
!    Wfile_TMY3 = USA_CO_Denver-Aurora-Buckley.AFB.724695_TMY3.epw
!    loadProfile = No
!    receptacle_ctrl_occ_reduction_frac = 1
!    receptacle_ctrl_unocc_reduction_frac = 1
!    CodeName = ASHRAE90.1_STD2004
!    CZ_City_Old = Boise
!    CZ_Label = 5B
!    exterior_lights_watts_c = 0
!    Addendum_AH = No
!    LPD_Ctrl = 0
!    con_swingdoor_r = 0.352236703
!    office_standby_mode = 
!    nonres_window_u_factor = 0.57
!    nonres_window_shgc = 0.39
!    nonresLSG = 1
!    AnalysisPurpose = ProgressIndicator
!    AnalysisCodeName = ASHRAE901
!    AnalysisCodeYear = 2004
!    AnalysisAmendment = NoneAmend
!    AnalysisPrototype = OfficeSmall
!    AnalysisScope = National
!    AnalysisState = National
!    AnalysisClimateZone = 5B
!    AnalysisCity = USA_CO_Denver
!    var_Ffactor_IP = 0.73
!    var_Cfactor_IP = 1.14
!    Core_ZN_SWH_flow = 4.048e-06
!    VT_Elec_Wheater = No
!    orientation = 0
!    wwr = 0.212

! specify overhang_pf for 1891 codes

  Version,9.0;
!-   ===========  ALL OBJECTS IN CLASS: SIMULATIONCONTROL ===========
  SimulationControl,
    Yes,                     !- Do Zone Sizing Calculation
    Yes,                     !- Do System Sizing Calculation
    Yes,                     !- Do Plant Sizing Calculation
No,         !- Run Simulation for Sizing Periods
YES;                      !- Run Simulation for Weather File Run Periods
!-   ===========  ALL OBJECTS IN CLASS: BUILDING ===========
  Building,
    OfficeSmall,            !- Name
    0,          !- North Axis {deg}
    City,                    !- Terrain
    0.0400,                  !- Loads Convergence Tolerance Value
    0.2000,                  !- Temperature Convergence Tolerance Value {deltaC}
    FullInteriorAndExterior, !- Solar Distribution
    25,                      !- Maximum Number of Warmup Days
    6;                       !- Minimum Number of Warmup Days
!-   ===========  ALL OBJECTS IN CLASS: SHADOWCALCULATION ===========
  ShadowCalculation,
    AverageOverDaysInFrequency,  !- Calculation Method
    30,                      !- Calculation Frequency
    15000;                   !- Maximum Figures in Shadow Overlap Calculations
!-   ===========  ALL OBJECTS IN CLASS: SURFACECONVECTIONALGORITHM:INSIDE ===========
  SurfaceConvectionAlgorithm:Inside,TARP;
!-   ===========  ALL OBJECTS IN CLASS: SURFACECONVECTIONALGORITHM:OUTSIDE ===========
  SurfaceConvectionAlgorithm:Outside,TARP;
!-   ===========  ALL OBJECTS IN CLASS: HEATBALANCEALGORITHM ===========
  HeatBalanceAlgorithm,ConductionTransferFunction,200.0000;
!-   ===========  ALL OBJECTS IN CLASS: TIMESTEP ===========
  Timestep,6;
!-   ===========  ALL OBJECTS IN CLASS: CONVERGENCELIMITS ===========
  ConvergenceLimits,
    1,                       !- Minimum System Timestep {minutes}
    20;                      !- Maximum HVAC Iterations
!-   ===========  ALL OBJECTS IN CLASS: RUNPERIOD ===========
  RunPeriod,
    ,                        !- Name
    1,                       !- Begin Month
    1,                       !- Begin Day of Month
    ,                        !- Begin Year
    12,                      !- End Month
    31,                      !- End Day of Month
    ,                        !- End Year
    Sunday,                  !- Day of Week for Start Day
    No,                      !- Use Weather File Holidays and Special Days
    No,                      !- Use Weather File Daylight Saving Period
    No,                     !- Apply Weekend Holiday Rule
    Yes,                     !- Use Weather File Rain Indicators
    Yes;                     !- Use Weather File Snow Indicators
!-   ===========  ALL OBJECTS IN CLASS: RUNPERIODCONTROL:SPECIALDAYS ===========
! US National Holidays

  RunPeriodControl:SpecialDays,
    New Years Day,           !- Name
    January 1,               !- Start Date
    1,                       !- Duration {days}
    Holiday;                 !- Special Day Type
  RunPeriodControl:SpecialDays,
    Veterans Day,            !- Name
    November 11,             !- Start Date
    1,                       !- Duration {days}
    Holiday;                 !- Special Day Type
  RunPeriodControl:SpecialDays,
    Christmas,               !- Name
    December 25,             !- Start Date
    1,                       !- Duration {days}
    Holiday;                 !- Special Day Type
  RunPeriodControl:SpecialDays,
    Independence Day,        !- Name
    July 4,                  !- Start Date
    1,                       !- Duration {days}
    Holiday;                 !- Special Day Type
  RunPeriodControl:SpecialDays,
    MLK Day,                 !- Name
    3rd Monday in January,   !- Start Date
    1,                       !- Duration {days}
    Holiday;                 !- Special Day Type
  RunPeriodControl:SpecialDays,
    Presidents Day,          !- Name
    3rd Monday in February,  !- Start Date
    1,                       !- Duration {days}
    Holiday;                 !- Special Day Type
  RunPeriodControl:SpecialDays,
    Memorial Day,            !- Name
    Last Monday in May,      !- Start Date
    1,                       !- Duration {days}
    Holiday;                 !- Special Day Type
  RunPeriodControl:SpecialDays,
    Labor Day,               !- Name
    1st Monday in September, !- Start Date
    1,                       !- Duration {days}
    Holiday;                 !- Special Day Type
  RunPeriodControl:SpecialDays,
    Columbus Day,            !- Name
    2nd Monday in October,   !- Start Date
    1,                       !- Duration {days}
    Holiday;                 !- Special Day Type
  RunPeriodControl:SpecialDays,
    Thanksgiving,            !- Name
    4th Thursday in November,!- Start Date
    1,                       !- Duration {days}
    Holiday;                 !- Special Day Type
!-   ===========  ALL OBJECTS IN CLASS: RUNPERIODCONTROL:DAYLIGHTSAVINGTIME ===========
! Daylight Saving Period in US

  RunPeriodControl:DaylightSavingTime,
    2nd Sunday in March,     !- Start Date
    1st Sunday in November;  !- End Date
!-   ===========  ALL OBJECTS IN CLASS: LOCATION ===========
! Location and design-day objects created by:

! Site:Location and design-day objects created by:
! ../../_p.bin/ddy2idf /projects/bigsim/weather/EnergyPlus/tmy3.new/all/USA_CO_Denver-Aurora-Buckley.AFB.724695_TMY3.ddy
!
Site:Location,
   Denver-Aurora-Buckley.AFB_CO_USA WMO=724695,     !- Site:Location Name
      39.72,     !- Latitude {N+ S-}
    -104.75,     !- Longitude {W- E+}
      -7.00,     !- Time Zone Relative to GMT {GMT+/-}
    1726.00;     !- Elevation {m}

SizingPeriod:DesignDay,
  Denver-Aurora-Buckley.AFB_CO_USA Ann Htg 99.6% Condns DB,     !- Name
         12,      !- Month
         21,      !- Day of Month
  WinterDesignDay,!- Day Type
      -17.9,      !- Maximum Dry-Bulb Temperature {C}
        0.0,      !- Daily Dry-Bulb Temperature Range {C}
 DefaultMultipliers, !- Dry-Bulb Temperature Range Modifier Type
           ,      !- Dry-Bulb Temperature Range Modifier Day Schedule Name
    Wetbulb,      !- Humidity Condition Type
      -17.9,      !- Wetbulb at Maximum Dry-Bulb {C}
           ,      !- Humidity Indicating Day Schedule Name
           ,      !- Humidity Ratio at Maximum Dry-Bulb {kgWater/kgDryAir}
           ,      !- Enthalpy at Maximum Dry-Bulb {J/kg}
           ,      !- Daily WetBulb Temperature Range {deltaC}
     82237.,      !- Barometric Pressure {Pa}
        2.5,      !- Wind Speed {m/s} design conditions vs. traditional 6.71 m/s (15 mph)
        180,      !- Wind Direction {Degrees; N=0, S=180}
         No,      !- Rain {Yes/No}
         No,      !- Snow on ground {Yes/No}
         No,      !- Daylight Savings Time Indicator
  ASHRAEClearSky, !- Solar Model Indicator
           ,      !- Beam Solar Day Schedule Name
           ,      !- Diffuse Solar Day Schedule Name
           ,      !- ASHRAE Clear Sky Optical Depth for Beam Irradiance (taub)
           ,      !- ASHRAE Clear Sky Optical Depth for Diffuse Irradiance (taud)
       0.00;      !- Clearness {0.0 to 1.1}

SizingPeriod:DesignDay,
  Denver-Aurora-Buckley.AFB_CO_USA Ann Clg .4% Condns DB=>MWB,     !- Name
          7,      !- Month
         21,      !- Day of Month
  SummerDesignDay,!- Day Type
       33.9,      !- Maximum Dry-Bulb Temperature {C}
       14.8,      !- Daily Dry-Bulb Temperature Range {C}
 DefaultMultipliers, !- Dry-Bulb Temperature Range Modifier Type
           ,      !- Dry-Bulb Temperature Range Modifier Day Schedule Name
    Wetbulb,      !- Humidity Condition Type
         15,      !- Wetbulb at Maximum Dry-Bulb {C}
           ,      !- Humidity Indicating Day Schedule Name
           ,      !- Humidity Ratio at Maximum Dry-Bulb {kgWater/kgDryAir}
           ,      !- Enthalpy at Maximum Dry-Bulb {J/kg}
           ,      !- Daily WetBulb Temperature Range {deltaC}
     82237.,      !- Barometric Pressure {Pa}
        3.6,      !- Wind Speed {m/s} design conditions vs. traditional 3.35 m/s (7mph)
         30,      !- Wind Direction {Degrees; N=0, S=180}
         No,      !- Rain {Yes/No}
         No,      !- Snow on ground {Yes/No}
         No,      !- Daylight Savings Time Indicator
       ASHRAETau, !- Solar Model Indicator
           ,      !- Beam Solar Day Schedule Name
           ,      !- Diffuse Solar Day Schedule Name
      0.423,      !- ASHRAE Clear Sky Optical Depth for Beam Irradiance (taub)
      2.020;      !- ASHRAE Clear Sky Optical Depth for Diffuse Irradiance (taud)

!-   ===========  ALL OBJECTS IN CLASS: WATER MAINS TEMPERATURES ===========
  Site:WaterMainsTemperature,
    Correlation,             !- Calculation Method
    ,                        !- Temperature Schedule Name
9.95,                       		!- Annual average outdoor air temperature {C}
23.7;	                     		!- Maximum difference in monthly average outdoor air temperatures {C}

!-   ===========  ALL OBJECTS IN CLASS: Site:GroundTemperature:FCfactorMethod ===========
Site:GroundTemperature:FCfactorMethod,
7.1,                   !- January Ground Temperature {C}
3.0,                   !- February Ground Temperature {C}
-1.0,                   !- March Ground Temperature {C}
0.8,                   !- April Ground Temperature {C}
-0.2,                   !- May Ground Temperature {C}
4.8,                   !- June Ground Temperature {C}
6.1,                   !- July Ground Temperature {C}
13.7,                   !- August Ground Temperature {C}
22.2,                   !- September Ground Temperature {C}
22.7,                   !- October Ground Temperature {C}
21.7,                   !- November Ground Temperature {C}
18.5;                   !- December Ground Temperature {C}

!-   ===========  ALL OBJECTS IN CLASS: MATERIAL:REGULAR-R ===========
  Material:NoMass,
    Opaque Door panel_con,   !- Name
    MediumRough,             !- Roughness
    0.352236703,  !- Thermal Resistance {m2-K/W}
    0.9,                     !- Thermal Absorptance
    0.7,                     !- Solar Absorptance
    0.7;                     !- Visible Absorptance
!-   ===========  ALL OBJECTS IN CLASS: CONSTRUCTION ===========
  Construction,
    Swinging Door_con,       !- Name
    Opaque Door panel_con;   !- Outside Layer
!-   ===========  ALL OBJECTS IN CLASS: SCHEDULETYPELIMITS ===========
  ScheduleTypeLimits,
    Any Number;              !- Name
  ScheduleTypeLimits,
    Fraction,                !- Name
    0.0,                     !- Lower Limit Value
    1.0,                     !- Upper Limit Value
    CONTINUOUS;              !- Numeric Type
  ScheduleTypeLimits,
    Temperature,             !- Name
    -60,                     !- Lower Limit Value
    200,                     !- Upper Limit Value
    CONTINUOUS;              !- Numeric Type
  ScheduleTypeLimits,
    On/Off,                  !- Name
    0,                       !- Lower Limit Value
    1,                       !- Upper Limit Value
    DISCRETE;                !- Numeric Type
  ScheduleTypeLimits,
    Control Type,            !- Name
    0,                       !- Lower Limit Value
    4,                       !- Upper Limit Value
    DISCRETE;                !- Numeric Type
  ScheduleTypeLimits,
    Humidity,                !- Name
    10,                      !- Lower Limit Value
    90,                      !- Upper Limit Value
    CONTINUOUS;              !- Numeric Type
  ScheduleTypeLimits,
    Number;                  !- Name
!-   ===========  ALL OBJECTS IN CLASS: SCHEDULE:COMPACT ===========
! lighting schedules for ASHRAE90.1-STD2004, ASHRAE90.1-2007

  Schedule:Compact,
    BLDG_LIGHT_SCH,          !- Name
    Fraction,                !- Schedule Type Limits Name
    Through: 12/31,          !- Field 1
    For: Weekdays,           !- Field 2
    Until: 5:00,0.18,        !- Field 3
        Until: 7:00,0.23,               !- Field 4
        Until: 8:00,0.42,               !- Field 5
        Until: 12:00,0.9,               !- Field 6
        Until: 13:00,0.8,               !- Field 7
        Until: 17:00,0.9,               !- Field 8
        Until: 18:00,0.61,               !- Field 9
        Until: 20:00,0.42,               !- Field 10
        Until: 22:00,0.32,               !- Field 11
        Until: 23:00,0.23,               !- Field 12
        Until: 24:00,0.18,               !- Field 13
        For: Weekends,               !- Field 14
        Until: 24:00,0.18,               !- Field 15
        For: Holiday,               !- Field 16
        Until: 24:00,0.18,               !- Field 17
        For: WinterDesignDay,               !- Field 18
        Until: 24:00,0,               !- Field 19
        For: SummerDesignDay,               !- Field 20
        Until: 24:00,1,               !- Field 21
        For: CustomDay1,               !- Field 22
        Until: 24:00,0,               !- Field 23
        For: CustomDay2,               !- Field 24
        Until: 24:00,0;               !- Field 25

! lighting schedules for ASHRAE90.1-STD2010


! lighting schedules for IECC2006 / IECC2009


! lighting schedules for IECC2012


! lighting schedules for IECC2015


! lighting schedules for ASHRAE1891_2009


! lighting schedules for ASHRAE1891_2011


! lighting schedules for ASHRAE90.1-2013


! lighting schedules for IECC2018


! Schedule Office Receptacle,  ASHRAE 90.1-1989, Section 13
! MODIFIED for increased off-hours plug loads (to account for more IT equipment)
! Hours: Weekly: 86.15, Yearly: 4492
!- Equipment schedule affected by Addendum BS-CS...and by Addendum BF to 90.1-2010.

  Schedule:Compact,
    BLDG_EQUIP_SCH,          !- Name
    Fraction,                !- Schedule Type Limits Name
    Through: 12/31,          !- Field 1
    For: WeekDays,           !- Field 2
    Until: 6:00,0.5, !- Field 3
    Until: 8:00,0.5,        !- Field 3
    Until: 12:00,1,        !- Field 5
    Until: 13:00,0.94,       !- Field 7
    Until: 17:00,1,        !- Field 9
    Until: 18:00,0.5,       !- Field 11
    Until: 23:00,0.2,       !- Field 13
    Until: 24:00,0.2,       !- Field 13
    For: Weekends,           !- Field 15
    Until: 24:00,0.2,       !- Field 16
    For: Holiday,            !- Field 18
    Until: 24:00,0.2,       !- Field 19
    For: WinterDesignDay,    !- Field 21
    Until: 24:00,0.0,        !- Field 22
    For: SummerDesignDay,    !- Field 24
    Until: 24:00,1.0,        !- Field 25
    For: CustomDay1,         !- Field 27
    Until: 24:00,0.0,        !- Field 28
    For: CustomDay2,         !- Field 30
    Until: 24:00,0.0;        !- Field 31
  Schedule:Compact,
    BLDG_OCC_SCH,            !- Name
    Fraction,                !- Schedule Type Limits Name
    Through: 12/31,          !- Field 1
    For: Weekdays,           !- Field 2
    Until: 6:00,0.0,         !- Field 3
    Until: 7:00,0.11,        !- Field 5
    Until: 8:00,0.21,        !- Field 7
    Until: 12:00,1.0,        !- Field 9
    Until: 13:00,0.53,       !- Field 11
    Until: 17:00,1.0,        !- Field 13
    Until: 18:00,0.32,       !- Field 15
    Until: 22:00,0.11,       !- Field 17
    Until: 23:00,0.05,       !- Field 19
    Until: 24:00,0.0,        !- Field 21
    For: Weekends,           !- Field 23
    Until: 24:00,0.0,        !- Field 24
    For: Holiday,            !- Field 26
    Until: 24:00,0.0,        !- Field 27
    For: WinterDesignDay,    !- Field 29
    Until: 24:00,0.0,        !- Field 30
    For: SummerDesignDay,    !- Field 32
    Until: 24:00,1.0,        !- Field 33
    For: CustomDay1,         !- Field 35
    Until: 24:00,0.0,        !- Field 36
    For: CustomDay2,         !- Field 38
    Until: 24:00,0.0;        !- Field 39
  Schedule:Compact,
    BLDG_OCC_SCH_w_SB,   !-Name
    Fraction,   !-Schedule Type Limits Name
    Through: 12/31,
    For: Weekdays,
    Until: 01:00, 0,
    Until: 02:00, 0,
    Until: 03:00, 0,
    Until: 04:00, 0,
    Until: 05:00, 0,
    Until: 06:00, 0,
    Until: 07:00, 0.11,
    Until: 08:00, 0.21,
    Until: 09:00, 1,
    Until: 10:00, 1,
    Until: 11:00, 0,
    Until: 12:00, 1,
    Until: 13:00, 0,
    Until: 14:00, 1,
    Until: 15:00, 0,
    Until: 16:00, 1,
    Until: 17:00, 1,
    Until: 18:00, 0.32,
    Until: 19:00, 0.11,
    Until: 20:00, 0.11,
    Until: 21:00, 0.11,
    Until: 22:00, 0.11,
    Until: 23:00, 0.05,
    Until: 24:00, 0,
    For: Weekends,
    Until: 01:00, 0,
    Until: 02:00, 0,
    Until: 03:00, 0,
    Until: 04:00, 0,
    Until: 05:00, 0,
    Until: 06:00, 0,
    Until: 07:00, 0,
    Until: 08:00, 0,
    Until: 09:00, 0,
    Until: 10:00, 0,
    Until: 11:00, 0,
    Until: 12:00, 0,
    Until: 13:00, 0,
    Until: 14:00, 0,
    Until: 15:00, 0,
    Until: 16:00, 0,
    Until: 17:00, 0,
    Until: 18:00, 0,
    Until: 19:00, 0,
    Until: 20:00, 0,
    Until: 21:00, 0,
    Until: 22:00, 0,
    Until: 23:00, 0,
    Until: 24:00, 0,
    For: Holiday,
    Until: 24:00,0.0,
    For: WinterDesignDay,
    Until: 24:00,0.0,
    For: SummerDesignDay,
    Until: 24:00,1.0,
    For: CustomDay1,
    Until: 24:00,0.0,
    For: CustomDay2,
    Until: 24:00,0.0;
  Schedule:Compact,
    BLDG_OCC_SCH_wo_SB,   !-Name
    Fraction,   !-Schedule Type Limits Name
    Through: 12/31,
    For: Weekdays,
    Until: 01:00, 0,
    Until: 02:00, 0,
    Until: 03:00, 0,
    Until: 04:00, 0,
    Until: 05:00, 0,
    Until: 06:00, 0,
    Until: 07:00, 0.11,
    Until: 08:00, 0.21,
    Until: 09:00, 1,